myETL/UCT_Source/20221102_1230_FO3_FR0.uct
##C 2007.05.01
Generated by Convergence, RTE's network analysis tool (2022.11.01 17:51)
Informations      : 20221102_1230_FO3_FR0.uct
Date of situation : 2022/11/02 12:30
##N
##ZFR
F.G.RO21 .G.ROP6 1    0 0        19.3805 7.88180 0.00000 0.00000 
F0COSS21 0COSSP4 1.1- 0 0        0.00000 0.00000 0.00000 0.00000 
F0CZTR21 0CZTRP6 1.1- 0 0        0.00000 0.00000 0.00000 0.00000 
F0PERR21 0PERRP6 1    0 0        0.00000 0.00000 0.00000 0.00000 
F1ARGI11 1ARGIP7 1    0 0        0.14306 69.6579 0.00000 0.00000 
F1ARGO11 1ARGOP7 1    0 0        0.00000 0.00000 0.00000 0.00000 
F1B.CA11 1B.CAP7 1    0 0        0.13964 67.2707 0.00000 0.00000 
F1BEZA11 1BEZAP7 1    0 0        0.00000 0.00000 0.00000 0.00000 
F1BIAN11 1BIANP7      1 0        0.00000 0.00000 0.00000 0.00000 
F1CAZA11 1CAZAP7 1    0 0        0.13622 67.7875 0.00000 0.00000 
F1CERG11 1CERGP7 1    0 0        1.45908 -65.371 0.00000 0.00000 
F1CHAR11 1CHARP7 1    0 0        0.16481 67.2897 0.00000 0.00000 
F1CIRO11 1CIROP7 1    0 0        0.00000 0.00000 0.00000 0.00000 
F1CLAM21 1CLAMP6 1    0 0        0.00000 0.00000 0.00000 0.00000 
F1CORN11 1CORNP7 1    0 0        0.07441 70.3389 0.00000 0.00000 
F1DAMB11 1DAMBP7 1    0 0        0.14663 70.0373 0.00000 0.00000 
F1EGUZ11 1EGUZP7 1    0 0        0.07611 69.4805 0.00000 0.00000 
F1FRAS11 1FRAS77 1    0 0        0.00000 0.00000 0.00000 0.00000 
F1GAUD11 1GAUDP7 1    0 0        0.09153 70.7640 0.00000 0.00000 
F1GEN.11 1GEN.P7 1    0 0        0.14339 70.0239 0.00000 0.00000 
F1GROS11 1GROSP7 1    0 0        0.00000 0.00000 0.00000 0.00000 
F1LESQ11 1LESQP7 1    0 0        0.07426 68.4343 0.00000 0.00000 
F1LIME11 1LIMEP7 1    0 0        0.15609 73.0250 0.00000 0.00000 
F1MARM11 1MARMP7 1    0 0        0.16870 66.6618 0.00000 0.00000 
F1MART11 1MARTP7 1    0 0        0.00000 0.00000 0.00000 0.00000 
F1MAZU11 1MAZUP7 1    0 0        0.00000 0.00000 0.00000 0.00000 
F1MEZE11 1MEZEP7 1    0 0        0.00000 0.00000 0.00000 0.00000 
F1MION11 1MIONP7 1    0 0        0.00000 0.00000 0.00000 0.00000 
F1MQIS11 1MQISP7 1    0 0        0.14977 68.6081 0.00000 0.00000 
F1NEOU11 1NEOUP7 1    0 0        0.00000 0.00000 0.00000 0.00000 
F1P.GA11 1P.GAP7 1    0 0        0.00000 0.00000 0.00000 0.00000 
F1QUIN11 1QUINP7 1    0 0        0.16470 68.2933 0.00000 0.00000 
F1REAL11 1REALP7      1 0        0.00000 0.00000 0.00000 0.00000 
F1RUEY11 1RUEYP7 1    0 0        0.14796 74.3960 0.00000 0.00000 
F1RULH11 1RULHP7 1    0 0        0.00000 0.00000 0.00000 0.00000 
F1SAUS11 1SAUSP7 1    0 0        0.05662 62.1442 0.00000 0.00000 
F1SEIN21 1SEINP6      1 0        0.00000 0.00000 0.00000 0.00000 
F1SERE11 1SEREP7 1    0 0        0.14600 70.1482 0.00000 0.00000 
F1TAMA11 1TAMAP7 1    0 0        0.07815 70.3485 0.00000 0.00000 
F1VALD11 1VALDP7 1    0 0        0.15689 66.4403 0.00000 0.00000 
F1VERF11 1VERFP7 1    0 0        0.14224 68.4533 0.00000 0.00000 
F1VIEL11 1VIELP7 1    0 0        0.13986 68.0091 0.00000 0.00000 
F1YVE.11 1YVE.P7 1    0 0        0.15614 69.2826 0.00000 0.00000 
F2ALBE11 2ALBEP7 1    0 0        0.06294 64.5875 0.00000 0.00000 
F2ARGI11 2ARGIP7 1    0 0        0.09058 71.0647 0.00000 0.00000 
F2B.CA11 2B.CAP7 1    0 0        0.07595 71.3648 0.00000 0.00000 
F2BIAN11 2BIANP7      1 0        0.00000 0.00000 0.00000 0.00000 
F2BREU11 2BREUP7 1    0 0        0.00000 0.00000 0.00000 0.00000 
F2BREU12 2BREUP71 1   0 0        0.14037 69.4104 0.00000 0.00000 
F2CAZA11 2CAZAP7      1 0        0.00000 0.00000 0.00000 0.00000 
F2CHAR11 2CHARP7 1    0 0        -0.0000 -0.0000 0.00000 0.00000 
F2CIRO11 2CIROP7 1    0 0        0.07470 69.1951 0.00000 0.00000 
F2EGUZ11 2EGUZP7 1    0 0        0.04818 64.5489 0.00000 0.00000 
F2GAUD11 2GAUDP7 1    0 0        0.14463 69.4138 0.00000 0.00000 
F2H.PA11 2H.PAP7 1    0 0        0.00000 0.00000 0.00000 0.00000 
F2LATE11 2LATEP7 1    0 0        0.08245 72.8826 0.00000 0.00000 
F2MART11 2MARTP7 1    0 0        0.00000 0.00000 0.00000 0.00000 
F2MAZU11 2MAZUP7 1    0 0        0.00000 0.00000 0.00000 0.00000 
F2MEZE11 2MEZEP7 1    0 0        0.00000 0.00000 0.00000 0.00000 
F2MION11 2MIONP7 1    0 0        0.00000 0.00000 0.00000 0.00000 
F2MORB11 2MORBP7 1    0 0        0.07347 67.9206 0.00000 0.00000 
F2MQIS11 2MQISP7 1    0 0        0.14468 69.8315 0.00000 0.00000 
F2NEOU11 2NEOUP7 1    0 0        0.07757 71.1754 0.00000 0.00000 
F2P.GA11 2P.GAP7 1    0 0        0.14212 68.0149 0.00000 0.00000 
F2REAL11 2REALP7 1    0 0        0.14184 68.2906 0.00000 0.00000 
F2RUEY11 2RUEYP7 1    0 0        0.07423 66.9611 0.00000 0.00000 
F2RULH11 2RULHP7 1    0 0        0.15692 70.0389 0.00000 0.00000 
F2SEIN21 2SEINP6 1    0 0        26.5735 72.5830 0.00000 0.00000 
F2SERE11 2SEREP7 1    0 0        0.00000 0.00000 0.00000 0.00000 
F2SIER11 2SIERP7 1    0 0        0.00000 0.00000 0.00000 0.00000 
F2TAMA11 2TAMAP7 1    0 0        0.14862 70.0661 0.00000 0.00000 
F2VERF11 2VERFP7 1    0 0        0.14119 68.3900 0.00000 0.00000 
F2VLEJ11 2VLEJP7 1    0 0        0.00000 0.00000 0.00000 0.00000 
F2VLEV11 2VLEVP7 1    0 0        0.07533 68.6356 0.00000 0.00000 
F3ALBE11 3ALBEP7 1    0 0        0.00000 0.00000 0.00000 0.00000 
F3ARGO11 3ARGOP7 1    0 0        -0.0000 -0.0000 0.00000 0.00000 
F3BAYE11 3BAYEP7 1    0 0        0.14493 67.5238 0.00000 0.00000 
F3CERG11 3CERGP7 1    0 0        0.07355 69.2364 0.00000 0.00000 
F3CHES11 3CHESP7 1    0 0        0.17175 69.2310 0.00000 0.00000 
F3CIRO11 3CIROP7 1    0 0        0.00000 0.00000 0.00000 0.00000 
F3LATE11 3LATEP7 1    0 0        0.00000 0.00000 0.00000 0.00000 
F3MAMB11 3MAMBP7 1    0 0        0.17906 65.2671 0.00000 0.00000 
F3MARL11 3MARLP7 1    0 0        -0.0000 -0.0000 0.00000 0.00000 
F3MEZE11 3MEZEP7 1    0 0        0.00000 0.00000 0.00000 0.00000 
F3MORB11 3MORBP7 1    0 0        0.07457 67.3047 0.00000 0.00000 
F3P.GA11 3P.GAP7 1    0 0        0.00000 0.00000 0.00000 0.00000 
F3RULH11 3RULHP7 1    0 0        0.19013 72.1881 0.00000 0.00000 
F3SAUC11 3SAUCP7 1    0 0        0.12695 69.6377 0.00000 0.00000 
F3VLEJ11 3VLEJP7 1    0 0        0.07803 68.5951 0.00000 0.00000 
F4CERG11 4CERGP7 1    0 0        0.07278 68.4610 0.00000 0.00000 
F4DOML11 4DOMLP7 1    0 0        0.07092 65.3468 0.00000 0.00000 
F4MEZE11 4MEZEP7 1    0 0        0.00000 -0.0000 0.00000 0.00000 
F4MORB11 4MORBP7 1    0 0        0.00000 0.00000 0.00000 0.00000 
F4REVI11 4REVIP7 1    0 0        0.00000 0.00000 0.00000 0.00000 
F4SIER11 4SIERP7 1    0 0        0.00000 0.00000 0.00000 0.00000 
F4VLEJ11 4VLEJP7 1    0 0        0.07335 68.7062 0.00000 0.00000 
F4VLEV11 4VLEVP7 1    0 0        0.11323 67.7475 0.00000 0.00000 
F5CERG11 5CERGP7 1    0 0        0.07337 68.4646 0.00000 0.00000 
F5DOML11 5DOMLP7 1    0 0        0.13832 65.8379 0.00000 0.00000 
F5SSEL11 5SSELP7 1    0 0        0.00000 0.00000 0.00000 0.00000 
F5VLEJ11 5VLEJP7 1    0 0        0.07637 69.2208 0.00000 0.00000 
F6SSEL11 6SSELP7 1    0 0        0.18674 65.5350 0.00000 0.00000 
F6VINC11 6VINCP7 1    0 0        0.00000 0.00000 0.00000 0.00000 
F6VLEJ11 6VLEJP7 1    0 0        0.13724 67.9233 0.00000 0.00000 
F8CREN11 8CRENP7 1    0 0        0.14032 68.0479 0.00000 0.00000 
F9CERG11 9CERGP7 1    0 0        2.89240 -74.666 0.00000 0.00000 
F9VLEV11 9VLEVP7 1    0 0        0.17079 62.7641 0.00000 0.00000 
FA.COM21 A.COMP6 1.3- 0 0        11.8730 3.08668 -57.839 0.00000 0.00000 -148.30 
FA.DOU21 A.DOUP6      1 0        0.00000 0.00000 0.00000 0.00000 
FA.LI621 A.LI6P6 1    0 0        24.4141 6.88008 0.00000 0.00000 
FA.MOU22 A.MOUP6 2    0 0        20.9156 2.06320 -1.0387 0.00000 0.00000 -1.9600 
FA.NOU21 A.NOUP6 1.1- 0 0        1.72894 1.95411 0.00000 0.00000 
FABLAI21 ABLAIP6 1.2- 0 0        9.09092 -1.1201 0.00000 0.00000 
FAGASS11 AGASSP7 1    0 0        0.00000 0.00000 0.00000 0.00000 
FAIRVA21 AIRVAP6 1-2  0 0        75.3679 16.5556 -6.1751 0.00000 0.00000 -29.700 
FALBER11 ALBERP7 1A   0 0        0.00000 0.00000 0.00000 0.00000 
FALBER12 ALBERP7 1B   0 0        0.00000 0.00000 0.00000 0.00000 
FALBER13 ALBERP7 2A   0 0        0.00000 0.00000 0.00000 0.00000 
FALBER14 ALBERP7 2B   0 0        0.00000 0.00000 0.00000 0.00000 
FALBER21 ALBERP6 1.1- 0 0        16.5901 -21.113 0.00000 0.00000 
FALBER23 ALBERP6 2.1- 0 0        20.7708 -13.628 0.00000 0.00000 
FALESI21 ALESIP6 1    0 2 245.64 61.5647 7.16967 -0.1131 0.00000 0.00000 -0.2000 
FALLIN21 ALLINP6 1-2  0 0        71.5111 1.82845 0.00000 0.00000 
FALMA 21 ALMA P6 1    0 0        32.8777 3.35402 0.00000 0.00000 
FALOUE21 ALOUEP6 1.1- 0 2 245.84 51.9789 9.96077 -0.2262 0.00000 0.00000 -0.4000 
FALSAC21 ALSACP6 1.1- 0 0        75.8733 14.9261 0.00000 0.00000 
FAMARG21 AMARGP6 1.1- 0 0        48.2465 -5.4118 -42.146 0.00000 0.00000 -121.90 
FAMELO21 AMELOP6 1    0 0        14.7876 -1.3116 0.00000 0.00000 
FAMFAR21 AMFARP6 1.1  0 0        0.00000 0.00000 -90.742 4.28977 0.00000 -125.00 64.7188 -125.28 
FAMFAR22 AMFARP6 1.2  0 0        0.00000 0.00000 0.00000 0.00000 
FAMIEN21 AMIENP6 1.3- 0 0        45.6666 1.86203 -8.7103 0.00000 0.00000 -24.200 
FAMNEV21 AMNEVP6 1-2  0 0        19.0132 7.22709 0.00000 0.00000 
FAMPER21 AMPERP6 1.1  0 0        22.9968 2.03883 0.00000 0.00000 
FAMPER22 AMPERP6 1.2  0 0        21.9011 -1.7458 0.00000 0.00000 
FAMPER23 AMPERP6 1.3  0 0        27.2525 12.4476 0.00000 0.00000 
FAMPON21 AMPONP6 1    0 0        0.77467 -14.037 0.00000 0.00000 
FANOUL21 ANOULP6 1.1- 0 0        48.8977 -11.274 0.00000 0.00000 
FANSER21 ANSERP6 1    0 0        9.18804 -0.3624 0.00000 0.00000 
FANSER22 ANSERP6 2    0 0        10.1826 -0.3540 -0.2308 0.00000 0.00000 -0.5000 
FANSER23 ANSERIN2     0 0        0.00000 0.00000 -2.2634 0.00000 0.00000 -6.0000 
FANSER24 ANSERINF     0 0        0.00000 0.00000 -0.2308 0.00000 0.00000 -0.5000 
FANTIB21 ANTIBP6 1-2  0 0        55.1447 -2.5744 -0.4176 0.00000 0.00000 -1.0000 
FAOSTE21 AOSTEP6 1    0 0        32.9068 11.6691 0.00000 0.00000 
FAQUED21 AQUEDP6 1.1- 0 0        87.1169 2.90681 0.00000 0.00000 
FARDOI21 ARDOIP6 1-2  0 0        83.1149 40.2376 0.00000 0.00000 
FARENC21 ARENCP6 1-2  0 2 239.51 65.8104 12.3466 -2.0467 0.00000 0.00000 -3.6300 
FARGE621 ARGE6P6 1.1- 0 0        49.7188 6.72392 0.00000 0.00000 
FARGE623 ARGE6P6 2.1- 0 0        0.00000 0.00000 0.00000 0.00000 
FARGEN21 ARGENP6 1.3- 0 0        -5.3173 -6.6097 0.00000 0.00000 
FARGIA11 ARGIAP7 1    0 0        0.00000 0.00000 0.00000 0.00000 
FARGIA12 ARGIAP7 2    0 0        0.00000 0.00000 0.00000 0.00000 
FARGIA21 ARGIAP6 1.1- 0 0        34.7693 -12.528 0.00000 0.00000 
FARGIA23 ARGIAP6 2.1- 0 0        36.7701 -13.869 0.00000 0.00000 
FARGIE21 ARGIEP6 1-2  0 0        73.6481 19.2635 0.00000 0.00000 
FARGOE11 ARGOEP7 1.1- 0 0        -8.8647 -7.2765 0.00000 0.00000 
FARGOE13 ARGOEP7 2.1- 0 0        0.00000 0.00000 0.00000 0.00000 
FARGOE15 ARGOEP7 3.1- 0 0        -8.8770 -7.2849 0.00000 0.00000 
FARGOE21 ARGOEP6 1.2- 0 0        21.0355 -7.2716 -13.626 0.00000 0.00000 -41.400 
FARGOE23 ARGOEP6 2.2- 0 0        0.00000 0.00000 0.00000 0.00000 
FARLOD21 ARLODP6 1    0 0        14.6736 -9.8057 0.00000 0.00000 
FARMEN21 ARMENP6 1.1  0 0        20.5274 1.31838 0.00000 0.00000 
FARMEN22 ARMENP6 2.1  0 0        19.4863 2.15359 0.00000 0.00000 
FARNAG21 ARNAGP6 1-2  0 0        192.428 54.9415 -5.9281 0.00000 0.00000 -15.670 
FARPEN21 ARPENP6 1.1- 0 0        61.7932 -6.9766 0.00000 0.00000 
FARRI521 ARRI5P6 1.1  0 0        0.00000 0.00000 0.00000 0.00000 
FARRI522 ARRI5P6 1.2  0 0        0.00000 0.00000 0.00000 0.00000 
FARRIG21 ARRIGP6 1B1- 0 0        83.8718 71.2937 0.00000 0.00000 
FARRIG29 ARRIGP6 2C1- 0 0        0.00000 84.7066 0.00000 0.00000 
FARVIG21 ARVIGP6 1    0 0        17.4102 8.89525 0.00000 0.00000 
FASTON21 ASTONP6 1    0 0        -3.7503 14.1380 0.00000 0.00000 
FASTUR22 ASTURP6 2    0 0        65.1288 33.0656 0.00000 0.00000 
FATTAQ11 ATTAQP7 1.2- 0 0        0.00000 0.00000 0.00000 0.00000 
FATTAQ13 ATTAQP7 2.2- 0 0        0.00000 0.00000 0.00000 0.00000 
FATTAQ21 ATTAQP6 1.1- 0 0        131.850 36.7638 0.00000 0.00000 
FAUBE 21 AUBE P6 1.1- 0 0        90.8950 85.0433 0.00000 0.00000 
FAUBE621 AUBE6P6 1.1- 0 0        3.31703 -0.0751 0.00000 0.00000 
FAUBET21 AUBETP6 1.1  0 0        8.29112 7.88707 0.00000 0.00000 
FAUBET22 AUBETP6 1.2- 0 0        21.2894 7.87922 0.00000 0.00000 
FAUBUS21 AUBUSP6 1    0 0        -0.5678 -10.915 0.00000 0.00000 
FAUDI521 AUDI5P6 1    0 0        61.1012 38.2284 0.00000 0.00000 
FAUDI522 AUDI5P6 2    0 0        61.1012 38.2284 0.00000 0.00000 
FAUGUE21 AUGUEP6 1    0 0        -100.99 8.77500 0.00000 0.00000 
FAULNO21 AULNOP6 1    0 0        11.3147 0.25670 -0.2132 0.00000 0.00000 -0.5000 
FAUSSO21 AUSSOP6 1    0 2 238.95 9.41152 1.41258 -85.700 -4.5898 0.00000 -121.50 40.0019 -32.015 
FAUSTE21 AUSTEP6 1.1  0 0        19.5157 6.53739 0.00000 0.00000 
FAUSTE22 AUSTEP6 1.2  0 0        18.0908 1.56766 0.00000 0.00000 
FAUZAT21 AUZATP6 1    0 0        10.4591 17.0465 0.00000 0.00000 
FAVALL21 AVALLP6 1    0 0        0.03441 -0.5063 0.00000 0.00000 
FAVELI11 AVELIP7 1A   0 0        0.00000 0.00000 0.00000 0.00000 
FAVELI12 AVELIP7 1B   0 0        0.00000 0.00000 0.00000 0.00000 
FAVELI13 AVELIP7 2A   0 0        0.00000 0.00000 0.00000 0.00000 
FAVELI14 AVELIP7 2B   0 0        0.00000 0.00000 0.00000 0.00000 
FAVELI15 AVELIP7 3A   0 0        0.00000 0.00000 0.00000 0.00000 
FAVELI16 AVELIP7 3B   0 0        0.00000 0.00000 0.00000 0.00000 
FAVELI21 AVELIP6 1.1- 0 0        0.00000 0.00000 0.00000 0.00000 
FAVELI23 AVELIP6 1.3  0 0        0.00000 0.00000 0.00000 0.00000 
FAVELI24 AVELIP6 2.1- 0 0        19.7829 -14.367 0.00000 0.00000 
FAVENI21 AVENIP6 1.1- 0 2 245.50 101.319 42.3818 -0.2262 0.00000 0.00000 -0.4000 
FAVIG621 AVIG6P6 1.1  0 0        -59.374 14.3697 0.00000 0.00000 
FAVIG622 AVIG6P6 1.2  0 0        -1.6127 8.30471 0.00000 0.00000 
FAVIGN21 AVIGNP6 1-2  0 0        76.1048 -12.529 -4.7183 0.00000 0.00000 -8.9300 
FAVOI511 AVOI5P7 1.1- 0 0        0.00000 0.00000 0.00000 0.00000 
FAVOI521 AVOI5P6 1    0 0        0.00000 0.00000 0.00000 0.00000 
FAVOIN21 AVOINP6 1.1- 0 0        28.6604 11.9073 0.00000 0.00000 
FAVRON21 AVRONP6 1.1  0 0        -3.0366 6.76511 0.00000 0.00000 
FAVRON22 AVRONP6 1.2  0 0        -3.2994 -0.7983 0.00000 0.00000 
FAYRES11 AYRESP7 1.1- 0 0        0.00000 0.00000 0.00000 0.00000 
FAYRES21 AYRESP6 1.1- 0 0        0.00000 0.00000 0.00000 0.00000 
FAYVEL21 AYVELP6 1.1- 0 0        28.7440 -1.3337 0.00000 0.00000 
FB.CAR11 B.CARP7 1B-1 0 0        0.00000 0.00000 0.00000 0.00000 
FB.CAR21 B.CARP6 1.2- 0 0        19.5425 3.70819 -1.0279 0.00000 0.00000 -2.4000 
FB.CAR23 B.CARP6 2.2- 0 0        0.00000 0.00000 0.00000 0.00000 
FB.CHA21 B.CHAP6 1-2  0 0        0.00000 -8.2276 0.00000 0.00000 
FB.CO521 B.CO5P6 1    0 0        -16.152 12.8654 0.00000 0.00000 
FB.CO621 B.CO6P6 1    0 0        0.00000 0.00000 0.00000 0.00000 
FB.EPI21 B.EPIP6 1-2  0 0        146.781 -13.911 0.00000 0.00000 
FB.GUE21 B.GUEP6 1A   0 2 227.49 0.00000 0.00000 -169.48 27.0854 0.00000 -240.00 79.0636 -75.390 
FB.GUE22 B.GUEP6 1B   0 2 226.45 0.00000 0.00000 -169.48 -15.698 0.00000 -240.00 79.0636 -75.390 
FB.HAM21 B.HAMP6 2    0 0        24.7231 -8.0113 0.00000 0.00000 
FB.MAI21 B.MAIP6 1.2- 0 0        58.6984 2.26734 -1.0002 0.00000 0.00000 -1.8000 
FB.MAN21 B.MANP6 1.1  0 0        0.00000 0.01712 0.00000 0.00000 
FB.MAN22 B.MANP6 1.2  0 0        1.09850 0.05557 0.00000 0.00000 
FB.MES21 B.MESP6 1    0 2 240.86 0.00000 0.00000 -12.038 -19.975 0.00000 -36.000 23.5915 -19.975 
FB.MON11 B.MONP7 1    0 0        0.00000 0.00000 0.00000 0.00000 
FB.MON12 B.MONP7 2    0 0        0.00000 0.00000 0.00000 0.00000 
FB.MON21 B.MONP6 1.2- 0 0        35.5155 7.02229 0.00000 0.00000 
FB.SE511 B.SE5P7 1    0 0        51.1466 -15.439 0.00000 0.00000 
FB.SSB21 B.SSBP6 1A   0 0        0.00000 0.00000 0.00000 0.00000 
FB.SSB22 B.SSBP6 1B   0 0        0.00000 0.00000 0.00000 0.00000 
FB.TOL11 B.TOLP7 1    0 0        39.9699 -4.9988 0.00000 0.00000 
FB.TOL12 B.TOLP7 2    0 0        0.00000 0.00000 0.00000 0.00000 
FB.VAL21 B.VALP6 1.1  0 0        0.00000 0.00000 0.00000 0.00000 
FB.VAL22 B.VALP6 1.2- 0 0        -12.098 20.5186 0.00000 0.00000 
FBACAL21 BACALP6      0 0        0.00000 0.00000 0.00000 0.00000 
FBACAL22 BACALP6 2    0 0        59.0883 0.60324 0.00000 0.00000 
FBAIXA11 BAIXAP7 1A   0 0        26.5972 -32.246 0.00000 0.00000 
FBAIXA12 BAIXAP7 1B   0 2 400.00 21.6965 -14.470 0.00000 -46.930 1011.00 -1011.0 327.548 -309.18 
FBAIXA13 BAIXAP7 2A   0 2 400.00 3.16089 0.00000 0.00000 -46.930 1011.00 -1011.0 327.548 -309.18 
FBAIXA14 BAIXAP7 2B   0 0        19.4402 -15.186 0.00000 0.00000 
FBAIXA21 BAIXAP6 1.1- 0 0        0.00000 0.00000 0.00000 0.00000 
FBAIXA25 BAIXAP6 2.1- 0 0        0.00000 0.00000 0.00000 0.00000 
FBALAR21 BALARP6 1.1- 0 0        53.6523 6.29622 0.00000 0.00000 
FBALMA21 BALMAP6 1-2  0 0        59.2863 -2.2027 0.00000 0.00000 
FBARBU21 BARBUP6 1-2  0 0        -4.5406 16.6336 -4.1285 0.00000 0.00000 -18.000 
FBARJA21 BARJAP6 1.1- 0 0        9.81800 -0.7662 -4.0075 0.00000 0.00000 -7.4300 
FBARNA11 BARNAP7 1A   0 0        0.00000 0.00000 0.00000 0.00000 
FBARNA12 BARNAP7 1B   0 0        0.00000 0.00000 0.00000 0.00000 
FBARNA13 BARNAP7 2A   0 0        0.00000 0.00000 0.00000 0.00000 
FBARNA14 BARNAP7 2B   0 0        0.00000 0.00000 0.00000 0.00000 
FBARP 21 BARP P6 1.2- 0 0        10.3989 -0.8881 0.00000 0.00000 
FBARQU21 BARQUP6 1.1- 0 0        0.41894 -1.5401 0.00000 0.00000 
FBASTI21 BASTIP6 1    0 0        44.3393 -8.8036 0.00000 0.00000 
FBATEL21 BATELP6 1    0 0        1.41354 0.26040 0.00000 0.00000 
FBATHI11 BATHIP7 1.1  0 0        0.00000 0.00000 0.00000 0.00000 
FBATHI12 BATHIP7 1.2  0 0        0.00000 0.00000 0.00000 0.00000 
FBATHI21 BATHIP6 1    0 0        0.00000 0.00000 0.00000 0.00000 
FBATIG21 BATIGP6 1.1  0 2 252.76 22.5180 2.71959 -0.2423 0.00000 0.00000 -0.4000 
FBATIG22 BATIGP6 1.2  0 2 247.55 18.7918 -0.9840 -0.2423 0.00000 0.00000 -0.4000 
FBATZE21 BATZEP6 1-2  0 0        0.00000 0.00000 0.00000 0.00000 
FBAUDR21 BAUDRP6 1    0 0        32.8777 7.64174 0.00000 0.00000 
FBAYET11 BAYETP7 1.1- 0 0        0.00000 0.00000 0.00000 0.00000 
FBAYET21 BAYETP6 1.1- 0 2 241.59 63.1963 -12.181 -361.96 31.1733 -195.80 -414.20 208.743 -150.13 
FBEC5 21 BEC5 P6 1    0 0        1.54027 -4.8654 0.00000 0.00000 
FBELLO21 BELLOP6      1 0        0.00000 0.00000 0.00000 0.00000 
FBERAN21 BERANP6 1    0 0        69.7842 11.2963 0.00000 0.00000 
FBERCL21 BERCLP6 1    0 0        14.2439 5.70420 0.00000 0.00000 
FBERG921 BERG9P6 1.1- 0 0        10.8507 -28.229 0.00000 0.00000 
FBERGH21 BERGHP6 1-2  0 0        90.1576 18.9070 0.00000 0.00000 
FBERSA21 BERSAP6 1.1  0 0        0.00000 -4.2896 -12.708 0.00000 0.00000 -34.100 
FBERSA22 BERSAP6 1.2  0 0        6.99995 0.46503 -18.258 0.00000 0.00000 -48.200 
FBERSA23 BERSAP6 1.3  0 0        0.00000 -0.6518 -23.097 0.00000 0.00000 -59.200 
FBERT521 BERT5P6 1.1- 0 2 245.67 61.0201 11.4413 -0.2423 0.00000 0.00000 -0.4000 
FBEUVR21 BEUVRP6 1-2  0 0        38.7845 -15.881 0.00000 0.00000 
FBEZ.E21 BEZ.EP6 1.1- 0 0        15.7318 -1.9655 -5.4290 0.00000 0.00000 -9.9000 
FBEZAU11 BEZAUP7 1    0 0        0.00000 0.00000 0.00000 0.00000 
FBEZAU12 BEZAUP7 2    0 0        0.00000 0.00000 0.00000 0.00000 
FBEZAU21 BEZAUP6 1    0 0        19.4513 2.81888 0.00000 0.00000 
FBEZAU22 BEZAUP6 2    0 0        19.3388 2.79406 0.00000 0.00000 
FBEZON21 BEZONP6 1-2  0 0        10.1966 -3.5978 0.00000 0.00000 
FBIANC11 BIANCP7 1.1- 0 0        0.00000 0.00000 0.00000 0.00000 
FBIANC21 BIANCP6 1.1- 0 0        19.2386 -26.237 0.00000 0.00000 
FBILLY21 BILLYP6 1.3- 0 0        -0.1509 -3.0082 0.00000 0.00000 
FBISSY21 BISSYP6 1.1- 0 0        112.615 -8.6338 0.00000 0.00000 
FBLAUX21 BLAUXP6 1    0 0        -12.179 12.0597 0.00000 0.00000 
FBLAY521 BLAY5P6 1    0 0        0.00000 10.7382 0.00000 0.00000 
FBLAYA11 BLAYAP7 1.1  0 0        0.00000 0.31840 0.00000 0.00000 
FBLAYA12 BLAYAP7 1.2  0 2 406.18 -37.261 0.00000 -899.35 199.504 -180.00 -910.00 496.120 -232.73 
FBLAYA13 BLAYAP7 1.3  0 2 406.20 -37.316 0.00000 -910.00 198.359 -180.00 -910.00 493.666 -234.00 
FBLAYA14 BLAYAP7 1.4  0 2 406.09 -12.317 0.00000 -910.00 346.296 -180.00 -910.00 494.000 242.000 
FBLAYA21 BLAYAP6 1-2  0 0        1.50557 -2.3124 0.00000 0.00000 
FBLENO11 BLENOP7 1    0 2 405.36 0.00000 0.00000 -295.00 18.7291 -134.00 -295.00 152.290 -118.57 
FBLENO12 BLENOP71 1   0 2 409.37 0.00000 0.00000 -33.000 28.4589 -33.000 -155.50 59.0000 -67.000 
FBLERI21 BLERIP6 1    0 0        22.5208 6.83276 0.00000 0.00000 
FBLOCA21 BLOCAP6 1-2  0 0        -47.199 41.4943 -49.123 0.00000 0.00000 -125.80 
FBOCCA21 BOCCAP6 1.2- 0 0        30.2720 99.3258 -0.7360 0.00000 0.00000 -1.5500 
FBOCTO11 BOCTOP7 1A   0 0        15.7146 -7.3613 0.00000 0.00000 
FBOCTO12 BOCTOP7 1B   0 0        0.00000 0.00000 0.00000 0.00000 
FBOCTO13 BOCTOP7 2A   0 0        0.00000 0.00000 0.00000 0.00000 
FBOCTO14 BOCTOP7 2B   0 0        0.00000 -12.882 0.00000 0.00000 
FBOISS11 BOISSP7 1    0 0        0.00000 0.00000 0.00000 0.00000 
FBOISS12 BOISSP7 2    0 0        0.00000 0.00000 0.00000 0.00000 
FBOISS21 BOISSP6 1.1- 0 0        93.6971 10.2778 0.00000 0.00000 
FBOLL521 BOLL5P6 1A1- 0 2 235.50 83.1003 13.9679 -187.08 91.9249 0.00000 -354.00 178.371 -95.012 
FBONN621 BONN6P6 1-2  0 0        71.0647 -40.024 0.00000 0.00000 
FBONNE21 BONNEP6 1.1  0 0        0.00000 0.00000 0.00000 0.00000 
FBONNE22 BONNEP6 1.2  0 0        0.00000 0.00000 0.00000 0.00000 
FBONNI21 BONNIP6 1.1- 0 0        42.1327 17.1356 0.00000 0.00000 
FBOR.C21 BOR.CP6 1.1- 0 0        36.9752 -2.5560 -0.1950 0.00000 0.00000 -0.4000 
FBORT 21 BORT P6 1.1  0 0        0.00000 0.00000 0.00000 0.00000 
FBORT 22 BORT P6 1.2  0 0        0.00000 0.00000 0.00000 0.00000 
FBOSCH21 BOSCHP6 1.3- 0 2 243.93 10.2251 -2.0166 -0.5591 0.00000 0.00000 -1.4000 
FBOUCH11 BOUCHP7 1    0 2 405.87 0.00000 0.00000 -407.33 74.7355 -225.00 -604.00 197.000 -180.00 
FBOUDE21 BOUDEP6 1.2- 0 0        30.4916 5.00856 0.00000 0.00000 
FBOULE21 BOULEP6 1.1- 0 0        23.3271 4.88010 0.00000 0.00000 
FBOUSC21 BOUSCP6 1    0 0        23.1650 -1.9123 -0.4874 0.00000 0.00000 -1.0000 
FBOUTD21 BOUTDP6 1    0 0        0.00000 0.89303 0.00000 0.00000 
FBOUTR13 BOUTRP7 2.2- 0 0        0.00000 0.00000 0.00000 0.00000 
FBOUTR21 BOUTRP6 1.1- 0 0        11.8739 97.3944 0.00000 0.00000 
FBRAEK21 BRAEKP6 1-2  0 0        131.369 40.8235 0.00000 0.00000 
FBRAEK71 BRAEKP1 1.1  0 2 18.401 0.00000 0.00000 -232.55 -24.538 -126.00 -404.00 89.3112 -243.42 
FBRAEK72 BRAEKP1 1.2  0 2 18.211 0.00000 0.00000 -66.544 4.12692 -44.000 -239.00 60.1862 -155.83 
FBRAIN21 BRAINP6 1    0 0        32.4894 -30.947 0.00000 0.00000 
FBRAUD11 BRAUDP7 1A   0 0        0.00000 0.00000 0.00000 0.00000 
FBRAUD12 BRAUDP7 1B   0 0        0.00000 0.00000 0.00000 0.00000 
FBRAUD13 BRAUDP7 2A   0 0        0.00000 0.00000 0.00000 0.00000 
FBRAUD14 BRAUDP7 2B   0 0        0.00000 0.00000 0.00000 0.00000 
FBRAUD15 BRAUDP7 3A   0 0        0.00000 0.00000 0.00000 0.00000 
FBRAUD16 BRAUDP7 3B   0 0        0.00000 0.00000 0.00000 0.00000 
FBRAUD21 BRAUDP6 1    0 0        0.00000 0.00000 0.00000 0.00000 
FBREAU21 BREAUP6 1    0 0        18.6461 2.64242 -0.1574 0.00000 0.00000 -0.4000 
FBREN521 BREN5P6 1-2  0 0        17.3934 -18.714 0.00000 0.00000 
FBRENC21 BRENCP6 1.1  0 0        0.00000 0.00000 0.00000 0.00000 
FBRENC22 BRENCP6 1.2  0 0        0.00000 0.00000 0.00000 0.00000 
FBRENC23 BRENCP6 1.3  0 0        0.00000 0.00000 0.00000 0.00000 
FBRENN21 BRENNP6 1-2  0 0        31.4152 -9.6951 0.00000 0.00000 
FBRENN22 BRENNP6      0 0        0.00000 0.00000 0.00000 0.00000 
FBRENS21 BRENSP6 1    0 0        0.00000 0.00000 0.00000 0.00000 
FBRENS71 BRENSP1 1    0 2 20.520 0.00000 0.00000 -46.008 18.0897 0.00000 -90.000 29.3833 -42.188 
FBREU521 BREU5P6 1    0 0        6.52062 -1.0269 0.00000 0.00000 
FBREUI11 BREUIP7 1-2  0 0        0.00000 0.00000 0.00000 0.00000 
FBREUI21 BREUIP6 1-2  0 0        0.49371 0.00000 0.00000 0.00000 
FBREVI21 BREVIP6 1    0 2 239.26 9.38844 -6.1138 0.00000 0.00000 0.00000 -32.100 25.7000 -32.400 
FBRICH21 BRICHP6 1.1  0 0        0.72569 1.76179 0.00000 0.00000 
FBRICH22 BRICHP6 1.3- 0 0        67.1065 17.1365 0.00000 0.00000 
FBRIO621 BRIO6P6 1.1- 0 0        0.44604 -0.3701 0.00000 0.00000 
FBRIZE21 BRIZEP6 1    0 0        17.7269 -0.7078 -1.7260 0.00000 0.00000 -4.4000 
FBRODE21 BRODEP6 1    0 0        18.8296 -35.799 0.00000 0.00000 
FBROMM11 BROMMP7 1    0 2 399.00 0.00000 0.00000 0.00000 0.00000 0.00000 -240.00 140.200 -156.40 
FBROMM21 BROMMP6 1.1  0 2 236.25 0.00000 0.00000 0.00000 0.00000 0.00000 -31.600 24.4000 -18.300 
FBROMM22 BROMMP6 1.2  0 2 236.25 0.00000 0.00000 0.00000 0.00000 0.00000 -31.600 27.0000 -19.900 
FBROMM23 BROMMP6 1.3  0 2 236.25 0.00000 0.00000 0.00000 0.00000 0.00000 -29.200 23.9000 -16.200 
FBROMM24 BROMMP6 1.4  0 2 236.25 0.00000 0.00000 0.00000 0.00000 0.00000 -31.600 23.2000 -16.800 
FBROMM25 BROMMP6 1.5  0 2 236.25 0.00000 0.00000 0.00000 0.00000 0.00000 -31.600 22.9000 -18.100 
FBROMM26 BROMMP6 1.6  0 2 236.25 0.00000 0.00000 0.00000 0.00000 0.00000 -31.600 19.1000 -16.700 
FBRUGE21 BRUGEP6 1-2  0 0        54.5293 25.0577 0.00000 0.00000 
FBRUNN21 BRUNNP6 1.1- 0 0        36.1142 22.6200 0.00000 0.00000 
FBUGEY11 BUGEYP7 1.2  0 2 406.16 0.00000 -0.0151 -910.00 62.5150 -180.00 -910.00 317.000 -218.00 
FBUGEY12 BUGEYP7 1.3  0 2 406.05 0.00000 -0.7773 -903.38 210.140 -180.00 -910.00 317.808 -438.25 
FBUGEY13 BUGEYP7 1.4  0 0        16.6359 12.2243 0.00000 0.00000 
FBUGEY14 BUGEYP7 1.5  0 2 406.04 0.00000 -3.3248 -872.13 211.168 -180.00 -880.00 320.588 -438.54 
FBUIRE21 BUIREP6 1-2  0 0        -11.596 -25.735 0.00000 0.00000 
FBUSSU21 BUSSUP6 1.1- 0 0        4.77269 -1.6839 0.00000 0.00000 
FBUTTA21 BUTTAP6 1    0 0        47.2311 -46.943 0.00000 0.00000 
FBVIL711 BVIL7P7 1    0 2 406.38 0.00000 -1.3045 -1291.6 395.224 -260.00 -1310.0 448.537 -563.43 
FBVILX11 BVILXP7 1    0 0        4.86764 3.89943 0.00000 0.00000 
FBXBOU21 BXBOUP6 1    0 0        57.0068 -58.994 0.00000 0.00000 
FBXCAI21 BXCAIP6 1.1  0 0        -65.746 31.9860 0.00000 0.00000 
FBXCAI22 BXCAIP6 1.2  0 0        -76.745 37.2001 0.00000 0.00000 
FBXCH521 BXCH5P6 1.1- 0 0        -8.5840 15.1794 0.00000 0.00000 
FBXCHA21 BXCHAP6 1.2- 0 0        -65.996 6.81533 0.00000 0.00000 
FBXCHA23 BXCHAP6 1.3  0 0        -22.180 8.83287 0.00000 0.00000 
FBXCOU22 BXCOUP6 2    0 0        61.8103 -5.4600 0.00000 0.00000 
FBXLIE21 BXLIEP6 1-2  0 0        118.608 -46.768 0.00000 0.00000 
FBXMON21 BXMONP6 1    0 0        0.00000 -0.0000 0.00000 0.00000 
FBXRE621 BXRE6P6 1    0 0        0.00000 0.00000 0.00000 0.00000 
FBXTO521 BXTO5P6 1.2- 0 0        -15.839 88.5800 0.00000 0.00000 
FBXTO523 BXTO5P6 2.1  0 0        9.03121 6.60765 0.00000 0.00000 
FBXTO524 BXTO5P6 2.2  0 0        -19.403 -4.3790 0.00000 0.00000 
FBZGET21 BZGETP6 1-2  0 2 245.86 58.9266 0.79544 -0.3554 0.00000 0.00000 -0.6000 
FBZGUI21 BZGUIP6 1B-1 0 0        27.2855 -8.9695 0.00000 0.00000 
FC.BOI21 C.BOIP6 1    0 0        31.3164 -0.0166 0.00000 0.00000 
FC.FO621 C.FO6P6 1    0 0        34.4943 6.49182 0.00000 0.00000 
FC.FON22 C.FONP6 2    0 0        112.263 -18.917 0.00000 0.00000 
FC.GOM21 C.GOMP6 1.1- 0 0        36.0850 -5.0660 -1.8754 0.00000 0.00000 -3.4000 
FC.LEM21 C.LEMP6 1.1  0 0        43.2400 2.38861 0.00000 0.00000 
FC.ME521 C.ME5P6 1    0 2 238.34 0.00000 0.00000 -411.36 58.5485 -200.00 -440.00 166.988 -165.20 
FC.MER21 C.MERP6 1-2  0 0        42.6784 1.51647 -0.8673 0.00000 0.00000 -2.0000 
FC.MET21 C.METP6 1    0 0        0.00000 0.00000 0.00000 0.00000 
FC.MET22 C.METP6 2    0 0        4.76737 11.2857 0.00000 0.00000 
FC.OME21 C.OMEP6 1    0 0        -19.830 -5.6409 0.00000 0.00000 
FC.REG21 C.REGP6 1A-1 0 0        117.094 -4.6924 0.00000 0.00000 
FC.RHO21 C.RHOP6 1-2  0 2 234.66 47.0744 -0.2268 -124.26 65.4522 0.00000 -228.00 132.701 -64.315 
FC.ROU22 C.ROUP6 2    0 0        35.2926 -0.1564 0.00000 0.00000 
FC.SEI21 C.SEIP6 1    0 0        15.6851 -3.5558 0.00000 0.00000 
FC.VIL21 C.VILP6 1    0 0        -2.1568 10.1134 0.00000 0.00000 
FCABAN21 CABANP6 1.1  0 0        5.57365 4.23627 0.00000 0.00000 
FCABAN22 CABANP6 1.2  0 0        56.5649 17.1746 0.00000 0.00000 
FCABES21 CABESP6 1    0 0        28.1293 9.08346 0.00000 0.00000 
FCABRI21 CABRIP6 1.1  0 0        6.28714 4.08626 0.00000 0.00000 
FCABRI22 CABRIP6 1.2- 0 0        1.28725 0.08686 0.00000 0.00000 
FCAEN 21 CAEN P6 1.3- 0 2 243.06 53.5084 1.76348 -0.1696 0.00000 0.00000 -0.4000 
FCAIL521 CAIL5P6 1.1- 0 2 239.99 33.2469 0.38390 -5.4290 0.00000 0.00000 -9.6900 
FCALA511 CALA5P7 1    0 0        0.00000 0.00000 0.00000 0.00000 
FCALA521 CALA5P6 1-2  0 0        0.00000 92.1235 0.00000 0.00000 
FCANTE11 CANTEP7 1    0 0        0.00000 -177.83 0.00000 0.00000 
FCANTE12 CANTEP7 2    0 0        0.00000 0.00000 0.00000 0.00000 
FCANTE21 CANTEP6 1.1  0 0        -19.347 -34.149 0.00000 0.00000 
FCANTE22 CANTEP6 1.2  0 0        -14.154 -30.730 -12.648 0.00000 0.00000 -27.500 
FCANTE23 CANTEP6 2.1- 0 0        -8.4028 74.3943 -6.4019 0.00000 0.00000 -13.900 
FCAPEL11 CAPELP7 1    0 0        0.00000 0.00000 0.00000 0.00000 
FCAPEL12 CAPELP7 2    0 0        0.00000 0.00000 0.00000 0.00000 
FCAPEL21 CAPELP6 1.2- 0 0        7.47476 0.09126 0.00000 0.00000 
FCAPEL23 CAPELP6 2.2- 0 0        7.46271 0.08904 0.00000 0.00000 
FCARDI21 CARDIP6 1.1  0 2 247.55 29.7414 0.44389 -0.3070 0.00000 0.00000 -0.5000 
FCARDI22 CARDIP6 1.2  0 2 252.76 37.9233 2.79426 -0.3070 0.00000 0.00000 -0.5000 
FCARIS21 CARISP6 1.1  0 0        -0.9716 -0.8544 0.00000 0.00000 
FCARIS22 CARISP6 1.2  0 0        -0.9716 -0.8544 0.00000 0.00000 
FCARR521 CARR5P6 1.1  0 0        0.00000 0.00000 0.00000 0.00000 
FCARR523 CARR5P6 1.3  0 0        14.3580 3.37802 0.00000 0.00000 
FCARRI21 CARRIP6 1.1  0 0        14.6542 -12.244 0.00000 0.00000 
FCARRI22 CARRIP6 1.2- 0 0        56.7549 -11.155 0.00000 0.00000 
FCASTA21 CASTAP6 1.1  0 0        0.00000 18.5872 0.00000 0.00000 
FCASTA22 CASTAP6 1.2  0 0        34.2389 3.89307 0.00000 0.00000 
FCATG111 CATG1P7 1    0 0        -2.0781 -2.3767 0.00000 0.00000 
FCATG211 CATG2P7 1    0 2 402.57 0.00000 0.11648 -1271.4 406.334 -260.00 -1300.0 406.334 -465.54 
FCATG311 CATG3P7 1    0 0        -0.1931 -4.0297 0.00000 0.00000 
FCATG411 CATG4P7 1.1  0 0        0.00000 0.00000 0.00000 0.00000 
FCAULA21 CAULAP6 1    0 0        54.1456 9.55693 0.00000 0.00000 
FCAZAR11 CAZARP7 1.1- 0 0        0.00000 0.00000 0.00000 0.00000 
FCAZAR23 CAZARP6 2.1- 0 0        0.00000 0.00000 0.00000 0.00000 
FCBAUD21 CBAUDP6 1.1- 0 0        2.70180 0.92620 0.00000 0.00000 
FCBRY 11 CBRY P7 1-2  0 0        69.3074 -4.2119 0.00000 0.00000 
FCERGY11 CERGYP7 1.1- 0 0        0.00000 0.00000 0.00000 0.00000 
FCERGY12 CERGYP7      0 0        0.00000 0.00000 0.00000 0.00000 
FCERGY13 CERGYP7 2.1- 0 0        0.00000 0.00000 0.00000 0.00000 
FCERGY15 CERGYP7 3.1- 0 0        0.00000 0.00000 0.00000 0.00000 
FCERGY21 CERGYP6 1.1- 0 2 249.34 18.6118 1.94305 -0.1100 0.00000 0.00000 -0.2000 
FCERGY22 CERGYP6      0 0        0.00000 0.00000 0.00000 0.00000 
FCERGY24 CERGYP6 2.2  0 2 249.34 22.6409 -3.7014 -0.1100 0.00000 0.00000 -0.2000 
FCERGY25 CERGYP6 3.1- 0 0        0.00000 0.00000 0.00000 0.00000 
FCERN 11 CERN P7 1    0 0        79.1467 1.17525 0.00000 0.00000 
FCERNA21 CERNAP6 1-2  0 0        54.4697 44.7471 0.00000 0.00000 
FCESTA21 CESTAP6 1    0 0        0.00000 0.00000 0.00000 0.00000 
FCHA.S21 CHA.SP6 1.1  0 0        1.30605 0.03570 -2.4688 0.00000 0.00000 -11.500 
FCHA.S22 CHA.SP6 1.2  0 0        0.23269 0.00636 -0.2105 0.00000 0.00000 -0.5000 
FCHABO21 CHABOP6 1.1- 0 0        78.1709 -31.658 0.00000 0.00000 
FCHABR21 CHABRP6 1.1- 0 0        0.65756 0.87276 0.00000 0.00000 
FCHAFF11 CHAFFP7 1A   0 0        83.7181 24.3812 0.00000 0.00000 
FCHAFF12 CHAFFP7 1B   0 0        83.7294 13.5992 0.00000 0.00000 
FCHAFF13 CHAFFP7 2A   0 0        0.00000 0.00000 0.00000 0.00000 
FCHAFF14 CHAFFP7 2B   0 0        0.00000 0.00000 0.00000 0.00000 
FCHAIN11 CHAINP7 1    0 0        0.00000 0.00000 0.00000 0.00000 
FCHAIN21 CHAINP6 1-2  0 0        145.578 -65.315 0.00000 0.00000 
FCHAL721 CHAL7P6 1.1- 0 0        44.5894 3.34318 0.00000 0.00000 
FCHALO21 CHALOP6 1-2  0 0        167.112 23.3771 0.00000 0.00000 
FCHAN511 CHAN5P7 1-2  0 0        161.951 -14.506 0.00000 0.00000 
FCHAN621 CHAN6P6 1    0 0        45.2751 0.67683 0.00000 0.00000 
FCHAPE21 CHAPEP6 1    0 0        20.9630 6.75411 0.00000 0.00000 
FCHARE22 CHAREP6 1.2- 0 0        23.1818 -16.672 0.00000 0.00000 
FCHARP11 CHARPP7 1.1- 0 0        44.8415 0.06168 0.00000 0.00000 
FCHARP13 CHARPP7 2.1  0 0        44.8686 -0.7166 0.00000 0.00000 
FCHARP14 CHARPP7 2.2  0 0        0.00000 0.00000 0.00000 0.00000 
FCHARP21 CHARPP6 1-2  0 0        57.6029 -8.5471 0.00000 0.00000 
FCHAST21 CHASTP6 1.1  0 0        0.00000 0.00000 0.00000 0.00000 
FCHAST22 CHASTP6 1.2- 0 0        0.00000 0.00000 0.00000 0.00000 
FCHATI21 CHATIP6 1.1  0 2 245.97 29.1563 5.13094 -0.1777 0.00000 0.00000 -0.3000 
FCHATI22 CHATIP6 1.2  0 2 225.00 0.00000 0.00000 0.00000 0.00000 0.00000 -0.3000 
FCHATI23 CHATIP6 1.3  0 0        60.7933 3.16508 0.00000 0.00000 
FCHAV621 CHAV6P6 1.2- 0 0        43.5886 21.9706 0.00000 0.00000 
FCHENE21 CHENEP6 1.5- 0 2 245.92 45.3046 -1.1175 -0.5397 0.00000 0.00000 -1.0000 
FCHESN11 CHESNP7 1B-1 0 0        0.00000 0.00000 0.00000 0.00000 
FCHESN21 CHESNP6 1.2- 0 0        68.4016 -35.029 0.00000 0.00000 
FCHEV521 CHEV5P6 1-2  0 0        109.402 176.950 0.00000 0.00000 
FCHEVA11 CHEVAP7 1.1  0 0        0.00000 0.00000 0.00000 0.00000 
FCHEVA12 CHEVAP7 1.2  0 0        0.00000 0.00000 0.00000 0.00000 
FCHEVA13 CHEVAP7 2.1- 0 0        0.00000 0.00000 0.00000 0.00000 
FCHEVI21 CHEVIP6 1.1  0 0        0.00000 0.00000 0.00000 0.00000 
FCHEVI22 CHEVIP6 1.3- 0 0        53.5425 12.8835 -0.7813 0.00000 0.00000 -1.7000 
FCHEY611 CHEY6P7 1    0 0        0.00000 0.00000 0.00000 0.00000 
FCHIN211 CHIN2P7 1.1  0 2 410.28 28.1282 14.6914 -897.33 -52.602 -176.00 -905.00 301.418 -427.04 
FCHIN212 CHIN2P7 1.2  0 2 407.28 2.75166 -0.8104 -278.27 247.359 -176.00 -905.00 247.359 -616.78 
FCHINX11 CHINXP7 1.1  0 0        29.1283 13.7776 0.00000 0.00000 
FCHINX12 CHINXP7 1.2  0 2 407.37 2.79006 -0.8234 -823.73 314.634 -180.00 -905.00 314.634 -489.97 
FCHOLE21 CHOLEP6 1-2  0 0        123.064 29.7051 0.00000 0.00000 
FCHOO111 CHOO1P7 1    0 0        16.5243 8.83826 0.00000 0.00000 
FCHOO211 CHOO2P7 1    0 0        0.00000 0.00000 0.00000 0.00000 
FCHOO212 CHOO2P7      0 0        0.00000 -1.4676 0.00000 0.00000 
FCHOO521 CHOO5P6 1    0 0        20.1493 19.6309 0.00000 0.00000 
FCHOO522 CHOO5P6 2    0 0        41.1515 49.6752 0.00000 0.00000 
FCIROL11 CIROLP7 1A1- 0 0        0.00000 0.00000 0.00000 0.00000 
FCIROL21 CIROLP6 1.1- 0 0        0.00000 0.00000 0.00000 0.00000 
FCISSA21 CISSAP6 1    0 0        18.5632 -40.609 0.00000 0.00000 
FCIVAU11 CIVAUP7 1.1  0 0        0.00000 0.00000 0.00000 0.00000 
FCIVAU12 CIVAUP7 1.2  0 0        0.00000 1.09849 0.00000 0.00000 
FCIZE 21 CIZE P6 1.2- 0 0        0.31136 2.01696 0.00000 0.00000 
FCLEON21 CLEONP6 1-2  0 0        88.5275 24.8716 -1.5728 0.00000 0.00000 -4.0000 
FCLERA11 CLERAP7 1.1- 0 0        6.48074 -7.5798 0.00000 0.00000 
FCLOCH21 CLOCHP6 1.1  0 0        10.8355 0.12517 0.00000 0.00000 
FCLOCH22 CLOCHP6 2.1  0 0        48.0302 6.46000 0.00000 0.00000 
FCOCHE11 COCHEP7 1    0 0        0.00000 0.00000 0.00000 0.00000 
FCOCHE71 COCHEP1 1.1  0 0        0.00000 0.00000 0.00000 0.00000 
FCOCHE72 COCHEP1 1.2  0 0        0.00000 0.00000 0.00000 0.00000 
FCOCHE73 COCHEP1 1.3  0 2 18.687 0.00000 2.55810 -64.491 115.135 -30.000 -237.00 115.135 -182.81 
FCOLAY21 COLAYP6 1-2  0 0        96.6244 4.05616 0.00000 0.00000 
FCOLON21 COLONP6 1.1- 0 2 248.07 60.0957 1.03720 -0.3554 0.00000 0.00000 -0.6000 
FCOMM721 COMM7P6 1-2  0 0        37.2612 5.04752 0.00000 0.00000 
FCOMMU23 COMMUP6 1.3  0 0        0.00000 0.00000 0.00000 0.00000 
FCOMMU24 COMMUP6 2B-2 0 0        0.00000 0.00000 0.00000 0.00000 
FCOMPI21 COMPIP6 1-2  0 0        44.2707 12.0442 0.00000 0.00000 
FCOMPS21 COMPSP6 1    0 0        0.00000 0.00000 0.00000 0.00000 
FCONCA21 CONCAP6 1-2  0 0        56.2725 6.50464 0.00000 0.00000 
FCONCE21 CONCEP6 1-2  0 0        49.4428 -2.7184 -0.5001 0.00000 0.00000 -0.8000 
FCONF521 CONF5P6 1.1- 0 0        60.3792 8.50684 -1.4000 0.00000 0.00000 -1.4000 
FCONST21 CONSTP6 1    0 0        -108.94 103.907 0.00000 0.00000 
FCONTA21 CONTAP6 1    0 0        13.7789 -3.2935 0.00000 0.00000 
FCONTA22 CONTAP6 2    0 0        13.6764 -3.2765 0.00000 0.00000 
FCONVE21 CONVEP6 1    0 0        66.2937 9.68392 0.00000 0.00000 
FCOQU521 COQU5P6 1.1  0 0        23.4966 9.85289 0.00000 0.00000 
FCOQU522 COQU5P6 1.2  0 0        24.6152 3.31722 0.00000 0.00000 
FCOQUA21 COQUAP6 1.2- 0 0        148.700 -0.0968 0.00000 0.00000 
FCOR.P11 COR.PP7 1.1- 0 0        0.00000 0.00000 0.00000 0.00000 
FCOR.P21 COR.PP6 1A-1 0 0        0.72961 2.70072 0.00000 0.00000 
FCORBI21 CORBIP6 1-2  0 0        199.464 81.9771 0.00000 0.00000 
FCORD511 CORD5P7 1    0 0        0.00000 0.63680 0.00000 0.00000 
FCORD521 CORD5P6 1.1  0 0        0.36481 1.45856 0.00000 0.00000 
FCORD522 CORD5P6 1.2  0 0        0.36481 1.49496 0.00000 0.00000 
FCORDE21 CORDEP6 1    0 0        0.00000 0.00000 0.00000 0.00000 
FCORIO21 CORIOP6 1.1  0 0        21.0907 0.56765 0.00000 0.00000 
FCORIO22 CORIOP6 1.2  0 0        18.4443 4.75549 0.00000 0.00000 
FCORME21 CORMEP6 1A1- 0 2 252.64 79.1123 89.3372 -0.9244 0.00000 0.00000 -1.6000 
FCORNI11 CORNIP7 1.1- 0 0        0.00000 0.00000 0.00000 0.00000 
FCORNI13 CORNIP7 2.1- 0 0        0.00000 0.00000 0.00000 0.00000 
FCORNI21 CORNIP6 1.1- 0 0        41.0216 -5.0468 0.00000 0.00000 
FCORNI24 CORNIP6 2.1- 0 0        41.8383 -5.4558 0.00000 0.00000 
FCOSSI21 COSSIP6 1.2- 0 2 244.65 77.0821 -10.084 -0.5397 0.00000 0.00000 -1.0000 
FCOUBE21 COUBEP6 1-2  0 0        5.42484 -1.0121 0.00000 0.00000 
FCOUCH21 COUCHP6 1-2  0 0        78.1186 14.3446 0.00000 0.00000 
FCOUDO21 COUDOP6 1-2  0 0        33.4445 -23.518 0.00000 0.00000 
FCOUES21 COUESP6 1    0 0        0.00000 0.00000 0.00000 0.00000 
FCOUFF21 COUFFP6 1.2- 0 2 242.02 -1.9897 -8.3008 -1.8601 0.00000 0.00000 -61.000 
FCOULA11 COULAP7 1A   0 0        0.00000 0.00000 0.00000 0.00000 
FCOULA12 COULAP7 1B   0 0        0.00000 0.00000 0.00000 0.00000 
FCOULA13 COULAP7 2A   0 0        0.00000 0.00000 0.00000 0.00000 
FCOULA14 COULAP7 2B   0 0        0.00000 0.00000 0.00000 0.00000 
FCOULA15 COULAP7 3A-3 0 0        0.00000 0.00000 0.00000 0.00000 
FCOUPV21 COUPVP6 1.1- 0 2 246.03 20.1489 0.93249 -0.2361 0.00000 0.00000 -0.4000 
FCPBLA21 CPBLAP6 1    0 0        28.4273 17.6310 0.00000 0.00000 
FCPFL521 CPFL5P6 1    0 0        33.8041 -8.6382 0.00000 0.00000 
FCPNIE11 CPNIEP7 1.1- 0 0        0.00000 0.00000 0.00000 0.00000 
FCPNIE13 CPNIEP7 2.1- 0 0        0.00000 0.00000 0.00000 0.00000 
FCPNIE21 CPNIEP6 1.2- 0 0        54.1534 36.7427 0.00000 0.00000 
FCPNIE22 CPNIEP6      0 0        0.00000 0.00000 0.00000 0.00000 
FCPNIE23 CPNIEP6 2.2- 0 0        6.45625 18.2980 0.00000 0.00000 
FCPNOL21 CPNOLP6 1    0 0        8.29545 2.38721 0.00000 0.00000 
FCPVAN21 CPVANP6 1-2  0 0        73.2445 0.52981 0.00000 0.00000 
FCREC621 CREC6P6 1.2- 0 0        48.1350 -3.6572 0.00000 0.00000 
FCRENE11 CRENEP7 1    0 0        0.00000 0.00000 0.00000 0.00000 
FCRENE12 CRENEP7 2    0 0        0.00000 0.00000 0.00000 0.00000 
FCRENE21 CRENEP6 1    0 0        0.00000 0.00000 0.00000 0.00000 
FCRENE22 CRENEP6 2    0 0        76.5360 -26.310 0.00000 0.00000 
FCRENE23 CRENEIN1     0 0        0.00000 0.00000 -6.6439 0.00000 0.00000 -35.600 
FCRENE24 CRENEIN4     0 0        0.00000 0.00000 -9.5978 0.00000 0.00000 -63.600 
FCRETA21 CRETAP6 1.1- 0 2 245.69 19.3082 2.50497 -0.3554 0.00000 0.00000 -0.6000 
FCREYS11 CREYSP7 1.2- 0 0        0.00000 0.00000 0.00000 0.00000 
FCREYS13 CREYSP7 2.2- 0 0        0.00000 0.00000 0.00000 0.00000 
FCRIME21 CRIMEP6 1.1  0 0        24.6250 28.6012 0.00000 0.00000 
FCRIME22 CRIMEP6 1.2  0 0        35.3518 7.39957 0.00000 0.00000 
FCROI621 CROI6P6 1.3- 0 0        25.6778 -5.6850 0.00000 0.00000 
FCROIX21 CROIXP6 1.2- 0 0        0.00000 0.00000 0.00000 0.00000 
FCROLL21 CROLLP6 1    0 0        13.5763 2.79500 0.00000 0.00000 
FCROUZ21 CROUZP6 1    0 0        6.15487 0.25266 0.00000 0.00000 
FCRUA511 CRUA5P7 1.1  0 2 402.94 0.00000 0.00000 -841.88 261.096 -176.00 -915.00 261.096 -411.17 
FCRUA512 CRUA5P7 1.2  0 0        28.1464 17.7822 0.00000 0.00000 
FCRUA513 CRUA5P7 1.3  0 2 402.99 0.00000 0.00000 -403.30 220.865 -176.00 -915.00 237.320 -449.81 
FCRUA514 CRUA5P7 1.4  0 0        0.00000 0.00000 0.00000 0.00000 
FCRUA521 CRUA5P6 1.1  0 0        15.4363 2.76018 0.00000 0.00000 
FCRUA522 CRUA5P6 1.2  0 0        0.43787 0.77021 0.00000 0.00000 
FCRUSE21 CRUSEP6 1    0 0        6.51390 -0.7425 0.00000 0.00000 
FCSLL821 CSLL8P6 1.1- 0 0        -0.5396 -2.8074 0.00000 0.00000 
FCSLLE21 CSLLEP6 1    0 0        28.2470 12.2671 0.00000 0.00000 
FCTAUR21 CTAURP6 1.1- 0 0        28.4401 3.33453 -3.7403 0.00000 0.00000 -6.6100 
FCUBNE11 CUBNEP7 1.1- 0 0        0.00000 0.00000 0.00000 0.00000 
FCUBNE21 CUBNEP6 1-2  0 0        38.9132 -20.557 0.00000 0.00000 
FCUPER21 CUPERP6 1.3- 0 0        3.03027 -1.2076 0.00000 0.00000 
FCURBA21 CURBAP6 1    0 0        0.00000 0.00000 0.00000 0.00000 
FCURTI21 CURTIP6 1.2- 0 0        4.49199 -1.1138 0.00000 0.00000 
FCUS.P21 CUS.PP6 1.2- 0 0        117.085 5.58485 0.00000 0.00000 
FCUSTI21 CUSTIP6 1    0 0        70.2111 5.16651 0.00000 0.00000 
FCXNAY21 CXNAYP6 1.1- 0 0        96.3325 50.7889 0.00000 0.00000 
FCXSSE21 CXSSEP6 1-2  0 0        35.5831 8.44858 0.00000 0.00000 
FCYCOF21 CYCOFP6 1.1  0 2 234.10 0.00000 0.00000 -393.21 83.5374 -180.00 -451.00 167.742 -132.31 
FCYCOF22 CYCOFP6 1.2  0 0        0.00000 20.0943 0.00000 0.00000 
FCZCEL21 CZCELP6 1.1  0 0        42.8567 3.54859 0.00000 0.00000 
FCZNEU22 CZNEUP6 1.2- 0 2 245.42 113.014 21.2712 -0.3554 0.00000 0.00000 -0.6000 
FCZRIE21 CZRIEP6 1-2  0 0        27.7343 6.38869 0.00000 0.00000 
FCZTRY21 CZTRYP6 1.4- 0 0        76.9250 25.7864 0.00000 0.00000 
FD.BRU21 D.BRUP6 1    0 0        -23.859 -2.5172 0.00000 0.00000 
FD.BUR11 D.BURP7 1.1  0 2 407.30 0.56727 -0.1802 -867.09 224.740 -180.00 -890.00 264.740 224.740 
FD.BUR12 D.BURP7 1.2  0 0        -1.4800 -1.7831 0.00000 0.00000 
FD.BUX11 D.BUXP7 1.1  0 0        28.5200 10.2179 0.00000 0.00000 
FD.BUX12 D.BUXP7 1.2  0 2 407.34 0.00000 0.00000 -882.21 184.005 -180.00 -890.00 367.541 -467.51 
FD.FRA21 D.FRAP6 1-2  0 0        51.9031 2.32473 -1.1144 0.00000 0.00000 -2.5000 
FD.GAR21 D.GARP6 1    0 0        -33.393 18.8904 0.00000 0.00000 
FD7BAC21 D7BACP6 1    0 0        0.00000 0.00000 0.00000 0.00000 
FDAMBR11 DAMBRP7 1.1- 0 0        0.00000 0.00000 0.00000 0.00000 
FDAMBR21 DAMBRP6 1-2  0 0        7.30942 -92.111 0.00000 0.00000 
FDAMER21 DAMERP6 1.1- 0 0        52.1987 1.44709 0.00000 0.00000 
FDANTO21 DANTOP6 1-2  0 0        35.5625 -14.748 0.00000 0.00000 
FDARBL21 DARBLP6 1    0 0        0.00000 0.00000 0.00000 0.00000 
FDARCE21 DARCEP6 1.1- 0 0        17.2303 -4.0107 0.00000 0.00000 
FDARSE21 DARSEP6 1-2  0 0        -7.9389 9.49694 0.00000 0.00000 
FDECHY21 DECHYP6 1    0 0        0.00000 0.00000 0.00000 0.00000 
FDECHY22 DECHYP6 2    0 0        0.00000 0.00000 0.00000 0.00000 
FDECIN21 DECINP6 1    0 0        23.3658 3.25563 0.00000 0.00000 
FDENNA21 DENNAP6 1    0 0        14.8409 -0.1840 0.00000 0.00000 
FDEPHG11 DEPHGP7 1    0 0        0.00000 0.00000 0.00000 0.00000 
FDEPHG21 DEPHGP6 1    0 0        0.00000 0.00000 0.00000 0.00000 
FDEPHT21 DEPHTP6 1    0 0        0.00000 0.00000 0.00000 0.00000 
FDETTW21 DETTWP6 1.1- 0 0        57.0771 -13.684 0.00000 0.00000 
FDIRIN21 DIRINP6 1    0 0        0.00000 0.00000 0.00000 0.00000 
FDISTR11 DISTRP7 1.1- 0 0        0.00000 0.00000 0.00000 0.00000 
FDISTR21 DISTRP6 1-2  0 0        41.0491 -49.466 0.00000 0.00000 
FDOBER21 DOBERP6 1-2  0 0        27.5157 8.02141 0.00000 0.00000 
FDOMLO11 DOMLOP7 1A-1 0 0        117.985 14.4395 0.00000 0.00000 
FDOMLO21 DOMLOP6 1-2  0 0        95.5726 322.224 0.00000 0.00000 
FDONZA11 DONZAP7 1A   0 0        0.00000 0.00000 0.00000 0.00000 
FDONZA12 DONZAP7 1B   0 0        0.00000 0.00000 0.00000 0.00000 
FDONZA13 DONZAP7 2A   0 0        0.00000 0.00000 0.00000 0.00000 
FDONZA14 DONZAP7 2B   0 0        0.00000 0.00000 0.00000 0.00000 
FDONZA21 DONZAP6 1    0 0        0.00000 0.00000 0.00000 0.00000 
FDONZE21 DONZEP6 1-2  0 0        31.1909 -8.3295 0.00000 0.00000 
FDOULO22 DOULOP6 2    0 0        16.2781 -0.2022 -0.4169 0.00000 0.00000 -1.2000 
FDOUVR21 DOUVRP6 1.1- 0 2 239.02 22.8053 21.7023 -0.2538 0.00000 0.00000 -0.6000 
FDRANC21 DRANCP6 1.1  0 0        0.00000 0.00000 0.00000 0.00000 
FDRANC22 DRANCP6 1.2  0 0        0.00000 0.00000 0.00000 0.00000 
FDRONN21 DRONNP6 1.2- 0 0        152.410 -2.1910 -1.6736 0.00000 0.00000 -4.0000 
FDUNES21 DUNESP6 1    0 0        -3.4099 3.28131 0.00000 0.00000 
FDURAN21 DURANP6 1.3- 0 0        28.4176 3.02634 -2.0958 0.00000 0.00000 -4.4000 
FDUVIG21 DUVIGP6 1    0 0        13.0000 13.0000 0.00000 0.00000 
FE.BOT22 E.BOTP6 2    0 3 239.60 102.780 -3.7151 -1.9540 0.00000 0.00000 -3.7300 
FE.HU711 E.HU7P7 1.1  0 2 412.31 0.00000 0.00000 -425.48 -25.775 -185.00 -433.90 163.440 -135.85 
FE.HU712 E.HU7P7 1.2  0 2 412.33 0.00000 0.00000 -422.45 -88.794 -185.00 -433.90 163.598 -136.15 
FE.HUC21 E.HUCP6 1    0 0        0.00000 0.00000 0.00000 0.00000 
FE.RHO21 E.RHOP6 1    0 0        -1.4132 -0.2981 0.00000 0.00000 
FECHAL11 ECHALP7 1A   0 0        0.00000 0.00000 0.00000 0.00000 
FECHAL12 ECHALP7 1B   0 0        0.00000 0.00000 0.00000 0.00000 
FECHAL13 ECHALP7 2A   0 0        0.00000 0.00000 0.00000 0.00000 
FECHAL14 ECHALP7 2B   0 0        0.00000 0.00000 0.00000 0.00000 
FECHAL21 ECHALP6 1.1- 0 0        0.00000 0.00000 0.00000 0.00000 
FECHIN21 ECHINP6 1-2  0 0        80.6461 -22.848 0.00000 0.00000 
FEDITH21 EDITHP6 1.1  0 0        1.88998 -0.5077 0.00000 0.00000 
FEDITH22 EDITHP6 1.2  0 0        -0.1100 -2.8407 0.00000 0.00000 
FEGUZO11 EGUZOP7 1    0 0        0.00000 0.00000 0.00000 0.00000 
FEGUZO21 EGUZOP6 1.1- 0 0        33.8091 -26.040 0.00000 0.00000 
FELANC21 ELANCP6 1.1- 0 0        115.927 15.3540 0.00000 0.00000 
FELANC22 ELANCP6 1.2  0 0        57.7155 0.61941 0.00000 0.00000 
FEMALE21 EMALEP6 1    0 0        0.00000 0.00000 0.00000 0.00000 
FENCHA21 ENCHAP6 1    0 0        0.00000 0.00000 0.00000 0.00000 
FENVAL21 ENVALP6 1-2  0 0        93.9556 -22.440 0.00000 0.00000 
FEPINE21 EPINEP6 1.1  0 0        31.3468 6.16522 0.00000 0.00000 
FEPINE22 EPINEP6 2.1  0 0        19.9671 1.09033 0.00000 0.00000 
FEPIZO21 EPIZOP6 1    0 0        0.00000 0.00000 -5.1467 1.77471 0.00000 -79.950 50.0000 -50.000 
FERASM21 ERASMP6 1.1  0 0        0.00000 3.62793 0.00000 0.00000 
FESCAI21 ESCAIP6 1-2  0 0        140.144 -12.893 0.00000 0.00000 
FESPI521 ESPI5P6 1    0 0        0.00000 0.00000 -11.453 3.13764 0.00000 -52.000 50.0000 -50.000 
FESTR621 ESTR6P6 1-2  0 0        10.6559 7.27393 0.00000 0.00000 
FETINC21 ETINCP6 1.1- 0 0        0.00000 -4.8674 0.00000 0.00000 
FETIVA21 ETIVAP6 1.1- 0 0        50.8856 2.81708 0.00000 0.00000 
FETUPE21 ETUPEP6 1    0 0        64.7729 11.9375 0.00000 0.00000 
FETUPE22 ETUPEP6 2    0 0        32.4985 5.98469 0.00000 0.00000 
FEYBEN21 EYBENP6 1.1- 0 0        87.4684 24.0826 0.00000 0.00000 
FF.FRE11 F.FREP7 1-2  0 0        -32.009 -10.280 0.00000 0.00000 
FFAIDH21 FAIDHP6 1    0 0        69.7704 10.5476 0.00000 0.00000 
FFALLO21 FALLOP6 1A-1 0 0        172.045 7.57338 0.00000 0.00000 
FFAMAR21 FAMARP6 1.1- 0 0        24.3066 10.2333 0.00000 0.00000 
FFANAU21 FANAUP6 1    0 0        0.00000 0.00000 0.00000 0.00000 
FFANAU22 FANAUP6 2    0 0        61.3508 -6.5398 0.00000 0.00000 
FFARRA21 FARRAP6 1-2  0 0        62.7763 2.69942 0.00000 0.00000 
FFAVAR21 FAVARP6 1.1- 0 0        12.1943 -7.4166 -6.8959 0.00000 0.00000 -11.750 
FFEROU21 FEROUP6 1    0 0        29.8443 -45.565 0.00000 0.00000 
FFESS511 FESS5P7 1.1  0 0        22.0501 13.6566 0.00000 0.00000 
FFESS512 FESS5P7 1.2  0 0        4.05010 5.65735 0.00000 0.00000 
FFESS521 FESS5P6 1.1  0 0        -0.9975 1.08288 0.00000 0.00000 
FFESS522 FESS5P6 1.2  0 0        -0.9975 0.97010 0.00000 0.00000 
FFESSE21 FESSEP6 1    0 0        0.00000 0.00000 0.00000 0.00000 
FFESSE22 FESSEP6 2    0 0        0.00000 0.00000 0.00000 0.00000 
FFESSH21 FESSHP6 1.1  0 0        0.00000 0.00000 0.00000 0.00000 
FFESSH22 FESSHP6 1.2  0 0        0.00000 0.00000 0.00000 0.00000 
FFESSH23 FESSHP6 1.3  0 0        0.00000 0.00000 0.00000 0.00000 
FFESSH24 FESSHP6 1.4  0 0        0.00000 0.11163 0.00000 0.00000 
FFESSH71 FESSHP1 1.1  0 2 18.082 0.00000 0.00000 -17.691 21.8079 0.00000 -45.000 21.8079 -23.791 
FFESSH72 FESSHP1 1.2  0 2 18.370 0.00000 0.00000 -18.232 20.2308 0.00000 -45.000 20.3546 -20.181 
FFESSH73 FESSHP1 1.3  0 2 18.252 -0.7763 0.00000 -21.623 18.7684 0.00000 -45.000 18.7684 -22.403 
FFESSH74 FESSHP1 1.4  0 2 19.408 0.00000 0.00000 -19.791 4.52096 0.00000 -45.000 19.9146 -20.949 
FFEUIL21 FEUILP6 1.1- 0 0        6.09114 -15.398 0.00000 0.00000 
FFEURS21 FEURSP6 1    0 0        37.6381 22.7318 0.00000 0.00000 
FFG.IL11 FG.ILEP7 1.1 0 0        0.00000 0.00000 0.00000 0.00000                 150.000 -150.00 
FFG.IL12 FG.ILEP7 1.2 0 0        0.00000 0.00000 0.00000 0.00000                 150.000 -150.00 
FFG.IL13 FG.ILEP7 2.1 0 0        0.00000 0.00000 0.00000 0.00000                 150.000 -150.00 
FFG.IL14 FG.ILEP7 2.2 0 0        0.00000 0.00000 0.00000 0.00000                 150.000 -150.00 
FFIRM521 FIRM5P6 1    0 0        0.82071 2.13507 0.00000 0.00000 
FFLAMA11 FLAMAP7 1.1  0 0        9.01711 6.56033 0.00000 0.00000 
FFLAMA12 FLAMAP7 1.2  0 0        5.03804 -1.1062 0.00000 0.00000 
FFLAMA13 FLAMAP7 1.3  0 0        6.01919 1.97825 0.00000 0.00000 
FFLAMA14 FLAMAP7 1.4  0 0        10.0370 -12.882 0.00000 0.00000 
FFLAME21 FLAMEP6 1.2- 0 0        10.8408 -0.1673 0.00000 0.00000 
FFLAND21 FLANDP6 1    0 0        0.00000 0.00000 0.00000 0.00000 
FFLEAC21 FLEACP6 1-2  0 0        79.7644 37.5414 0.00000 0.00000 
FFLERS21 FLERSP6 1-2  0 0        95.3519 10.4512 0.00000 0.00000 
FFLEYR21 FLEYRP6 1-2  0 0        80.8996 8.36675 0.00000 0.00000 
FFLOIR21 FLOIRP6 1-2  0 0        135.233 16.7438 0.00000 0.00000 
FFLORE21 FLOREP6 1-2  0 0        39.3421 -7.4743 0.00000 0.00000 
FFOCH 21 FOCH P6 1.1  0 0        0.00000 0.00000 0.00000 0.00000 
FFOCH 22 FOCH P6 1.2  0 0        25.3263 2.02428 0.00000 0.00000 
FFOLIE21 FOLIEP6 1.1  0 0        0.00000 2.56745 0.00000 0.00000 
FFONT 21 FONT P6 1    0 0        0.00000 0.00000 0.00000 0.00000 
FFOSSE21 FOSSEP6 1-2  0 0        74.9695 3.81933 0.00000 0.00000 
FFOUSC21 FOUSCP6 1    0 0        20.1191 -27.090 0.00000 0.00000 
FFOUTE21 FOUTEP6 1A   0 0        4.58968 -12.268 0.00000 0.00000 
FFOUTE22 FOUTEP6 1B   0 0        2.58997 -10.267 0.00000 0.00000 
FFRASN12 FRASNP7 2    0 0        0.00000 0.00000 0.00000 0.00000 
FFRASN21 FRASNP6 1    0 0        29.9984 -32.436 0.00000 0.00000 
FFREJU21 FREJUP6 1-2  0 0        66.5770 102.522 0.00000 0.00000 
FFROGE21 FROGEP6 1B-1 0 0        40.4844 -40.015 0.00000 0.00000 
FFROMA21 FROMAP6 1.1  0 0        -4.7697 -4.6909 0.00000 0.00000 
FFROMA22 FROMAP6 1.2  0 0        25.6283 14.7280 0.00000 0.00000 
FFRONC21 FRONCP6 1.1- 0 0        44.0710 -3.3751 0.00000 0.00000 
FFRUGE11 FRUGEP7 1    0 0        -72.807 -0.2735 0.00000 0.00000 
FG.AVO11 G.AVOP7 1.1- 0 0        0.00000 0.00000 0.00000 0.00000 
FG.AVO13 G.AVOP7 2.1- 0 0        0.00000 0.00000 0.00000 0.00000 
FG.BA521 G.BA5P6 1    0 0        -32.524 18.4660 0.00000 0.00000 
FG.BAN21 G.BANP6 1.1  0 0        0.00000 0.00000 0.00000 0.00000 
FG.BAN22 G.BANP6 1.2  0 0        0.00000 0.00000 0.00000 0.00000 
FG.BAN23 G.BANP6 1.3  0 0        74.9675 52.6019 0.00000 0.00000 
FG.CAI21 G.CAIP6 1    0 0        45.4477 9.11614 -0.1333 0.00000 0.00000 -0.3000 
FG.CAI22 G.CAIP6 2    0 0        4.02975 3.20522 0.00000 0.00000 
FG.CAI23 G.CAIIN1     0 0        0.00000 0.00000 -11.760 0.00000 0.00000 -24.600 
FG.CAI24 G.CAIINF     0 0        0.00000 0.00000 -0.1333 0.00000 0.00000 -0.3000 
FG.CO621 G.CO6P6 1.3- 0 0        0.00000 0.00000 0.00000 0.00000 
FG.COE21 G.COEP6 1.3- 0 0        16.7578 1.81587 0.00000 0.00000 
FG.COL21 G.COLP6 1    0 0        0.00000 0.30576 0.00000 0.00000 
FG.COL22 G.COLP6 2    0 0        366.231 96.8527 0.00000 0.00000 
FG.COU21 G.COUP6 1.1- 0 0        11.2468 21.6439 0.00000 0.00000 
FG.DEN21 G.DENP6 1.1  0 0        35.3759 10.0515 0.00000 0.00000 
FG.DEN22 G.DENP6 1.3- 0 0        0.00000 0.00000 0.00000 0.00000 
FG.ILE11 G.ILEP7 1A   0 0        0.00000 0.00000 0.00000 0.00000 
FG.ILE12 G.ILEP7 1B   0 0        0.00000 0.00000 0.00000 0.00000 
FG.ILE13 G.ILEP7 2A   0 0        0.00000 0.00000 0.00000 0.00000 
FG.ILE14 G.ILEP7 2B   0 0        0.00000 0.00000 0.00000 0.00000 
FG.ILE21 G.ILEP6 1.1- 0 0        70.5927 20.2314 0.00000 0.00000 
FG.MAS21 G.MASP6 1.3- 0 0        28.2637 3.73687 0.00000 0.00000 
FG.POR21 G.PORP6 1.1- 0 0        -1.4120 -0.6940 0.00000 0.00000 
FG.QUE21 G.QUEP6 1    0 0        43.8426 -36.956 0.00000 0.00000 
FG.RIV21 G.RIVP6 1    0 2 237.66 0.00000 0.00000 -400.27 187.293 -174.00 -446.00 187.293 -207.30 
FG.SYN21 G.SYNP6 1.2- 0 0        37.6663 -5.4417 0.00000 0.00000 
FG.SYN23 G.SYNP6 2.1  0 0        33.3037 -13.085 0.00000 0.00000 
FG.SYN24 G.SYNP6 2.2  0 0        37.7341 -14.911 0.00000 0.00000 
FGABIO21 GABIOP6 1    0 0        25.5421 -43.136 0.00000 0.00000 
FGALER21 GALERP6 1.1  0 2 245.63 16.8204 22.7358 -0.2193 0.00000 0.00000 -0.4000 
FGALER22 GALERP6 1.2  0 2 245.77 24.0195 1.82761 -0.2193 0.00000 0.00000 -0.4000 
FGALOR11 GALORP7 1    0 0        0.00000 0.00000 0.00000 0.00000 
FGALOR21 GALORP6 1    0 0        0.00000 92.2352 0.00000 0.00000 
FGAMBE21 GAMBEP6 1-1. 0 0        37.4736 5.29617 0.00000 0.00000 
FGAMBS21 GAMBSP6 1.1- 0 0        -59.010 10.1013 0.00000 0.00000 
FGAMPA21 GAMPAP6 1-2  0 0        112.979 17.4495 0.00000 0.00000 
FGANGE21 GANGEP6 1.2- 0 0        13.9311 -8.0263 0.00000 0.00000 
FGARCH21 GARCHP6 1.1- 0 0        34.2973 -12.668 0.00000 0.00000 
FGARD721 GARD7P6 1.1- 0 0        36.1362 -2.0217 -4.0127 0.00000 0.00000 -7.2700 
FGARIB21 GARIBP6 1    0 0        18.2179 -0.4431 0.00000 0.00000 
FGARIE21 GARIEP6 1.1- 0 0        18.9945 -1.2024 -0.3899 0.00000 0.00000 -0.8000 
FGARRI21 GARRIP6 1    0 0        -0.7562 0.20000 0.00000 0.00000 
FGATEL22 GATELP6 2    0 0        19.8469 -14.371 0.00000 0.00000 
FGATI511 GATI5P7 1B-1 0 0        38.8204 -12.977 0.00000 0.00000 
FGAUDI11 GAUDIP7 1A   0 0        0.00000 0.00000 0.00000 0.00000 
FGAUDI12 GAUDIP7 1B   0 0        0.00000 0.00000 0.00000 0.00000 
FGAUDI13 GAUDIP7 2A   0 0        0.00000 0.00000 0.00000 0.00000 
FGAUDI14 GAUDIP7 2B   0 0        0.00000 0.00000 0.00000 0.00000 
FGAUDI21 GAUDIP6 1.1  0 0        0.06652 -18.447 0.00000 0.00000 
FGAUDI22 GAUDIP6 2.1  0 0        0.00000 0.00000 0.00000 0.00000 
FGAUDI23 GAUDIIN1     0 0        0.00000 0.00000 -11.120 0.00000 0.00000 -15.200 
FGAUDI24 GAUDIINF     0 0        0.00000 0.00000 -0.0851 0.00000 0.00000 -0.2000 
FGAUGL11 GAUGLP7 1A-1 0 0        40.8547 -33.519 0.00000 0.00000 
FGAVRE11 GAVREP7 1.2- 0 0        0.00000 0.00000 0.00000 0.00000 
FGAVRE13 GAVREP7 2.1  0 0        60.0272 1.81161 0.00000 0.00000 
FGAVRE14 GAVREP7 2.2  0 0        48.6629 -21.208 0.00000 0.00000 
FGAVRE21 GAVREP6 1    0 0        0.00000 0.00000 0.00000 0.00000 
FGAVRE22 GAVREP6 2    0 0        25.0720 -2.5527 0.00000 0.00000 
FGEN.P11 GEN.PP7 1.2- 0 0        0.00000 0.00000 0.00000 0.00000 
FGEN.P13 GEN.PP7 2.1  0 0        0.00000 0.00000 0.00000 0.00000 
FGEN.P14 GEN.PP7 2.2  0 0        0.00000 0.00000 0.00000 0.00000 
FGEN.P21 GEN.PP6 1A   0 0        0.00000 0.00000 0.00000 0.00000 
FGEN.P22 GEN.PP6 1B   0 0        0.00000 0.00000 0.00000 0.00000 
FGEN.P23 GEN.PP6 2A   0 0        0.00000 0.00000 0.00000 0.00000 
FGEN.P24 GEN.PP6 2B-3 0 0        0.00000 0.00000 0.00000 0.00000 
FGEN.P25 GEN.PP6 3A   0 0        0.00000 0.00000 0.00000 0.00000 
FGENIS21 GENISP6 1.1  0 2 225.00 0.00000 0.11163 0.00000 0.00000 0.00000 -66.000 36.5100 -25.670 
FGENIS22 GENISP6 1.2  0 0        0.00000 0.00000 0.00000 0.00000 
FGENIS23 GENISP6 1.3- 0 2 239.93 0.00000 0.00000 -114.40 -16.710 0.00000 -132.00 80.9534 -59.503 
FGENIS25 GENISP6 1.5- 0 0        0.00000 0.00000 0.00000 0.00000 
FGENIT21 GENITP6 1    0 2 246.09 30.5400 -1.2781 -0.2361 0.00000 0.00000 -0.4000 
FGENN321 GENN3P6 1    0 0        0.00000 0.00000 0.00000 0.00000 
FGERST21 GERSTP6 1    0 0        -69.333 2.74787 0.00000 0.00000 
FGERVA21 GERVAP6 1    0 0        -50.158 -2.1532 0.00000 0.00000 
FGIEN 21 GIEN P6 1-2  0 0        48.4715 -4.3110 0.00000 0.00000 
FGINES21 GINESP6 1.2- 0 0        179.609 -6.0146 -1.6438 0.00000 0.00000 -3.6000 
FGIVOR21 GIVORP6 1.2- 0 0        0.00000 0.00000 0.00000 0.00000 
FGOBEL21 GOBELP6 1.1  0 0        10.3624 1.55591 0.00000 0.00000 
FGOBEL22 GOBELP6 1.2  0 0        14.7453 2.33325 0.00000 0.00000 
FGODIN21 GODINP6 1-2  0 0        39.4639 -21.413 0.00000 0.00000 
FGOLBE21 GOLBEP6 1.1- 0 0        89.1141 33.3944 0.00000 0.00000 
FGOLF511 GOLF5P7 1.1  0 2 399.24 11.8313 -19.289 -1288.5 523.186 -266.00 -1310.0 576.568 -445.37 
FGOLF512 GOLF5P7 1.2  0 0        0.00000 0.00000 0.00000 0.00000 
FGOLF513 GOLF5P7      0 0        18.1318 -0.8522 0.00000 0.00000 
FGOLIN21 GOLINP6 1    0 0        0.00000 0.00000 0.00000 0.00000 
FGONES21 GONESP6 1.3- 0 0        24.6362 -3.2246 0.00000 0.00000 
FGOURJ21 GOURJP6 1.1- 0 0        58.2781 63.9446 0.00000 0.00000 
FGOUVI21 GOUVIP6 1.1- 0 0        15.7730 1.46938 0.00000 0.00000 
FGRACI21 GRACIP6 1    0 2 234.11 0.00000 0.00000 -392.21 83.3178 -120.00 -453.00 161.068 -125.91 
FGRAFF21 GRAFFP6 1    0 0        61.0095 52.8994 -1.0059 0.00000 0.00000 -2.1000 
FGRAFF22 GRAFFP6 2    0 0        35.8300 7.34066 -1.0059 0.00000 0.00000 -2.1000 
FGRAMO21 GRAMOP6 1-2  0 2 236.91 8.67842 -5.0435 -0.3887 0.00000 0.00000 -0.8000 
FGRAND21 GRANDP6 1.1- 0 0        0.00000 0.00000 0.00000 0.00000 
FGRANZ11 GRANZP7 1A-1 0 0        0.00000 0.00000 0.00000 0.00000 
FGRANZ21 GRANZP6 1A1- 0 0        0.00000 0.00000 0.00000 0.00000 
FGRAV511 GRAV5P7 1.1  0 2 408.48 0.00000 0.00000 -834.82 -87.498 -180.00 -910.00 274.541 -459.50 
FGRAV512 GRAV5P7 1.2  0 2 407.33 0.00000 0.00000 -903.38 119.621 -180.00 -910.00 245.057 95.0664 
FGRAV513 GRAV5P7 1.3  0 0        10.1560 5.71560 0.00000 0.00000 
FGRAV514 GRAV5P7 1.4  0 0        29.1551 14.7026 0.00000 0.00000 
FGRAV515 GRAV5P7 1.5  0 2 408.45 0.00000 0.00000 -910.00 -77.129 -180.00 -910.00 281.000 -453.99 
FGRAV516 GRAV5P7 1.6  0 2 408.44 -23.695 0.00000 -910.00 -73.135 -180.00 -910.00 285.687 -452.82 
FGRAV521 GRAV5P6 1    0 0        0.00000 0.16715 0.00000 0.00000 
FGRAV522 GRAV5P6 2    0 0        -0.1576 0.16715 0.00000 0.00000 
FGRENA21 GRENAP6 1.1- 0 0        41.8950 6.57827 0.00000 0.00000 
FGREPI11 GREPIP7 1.1- 0 0        51.7907 -0.5203 0.00000 0.00000 
FGREPI12 GREPIP7 1.2- 0 0        52.0474 6.03915 0.00000 0.00000 
FGREZI21 GREZIP6 1    0 0        32.8416 -14.830 0.00000 0.00000 
FGRIGN21 GRIGNP6 1    0 0        50.4125 -6.2499 0.00000 0.00000 
FGRIGN22 GRIGNP6 2    0 0        33.9736 -3.4945 0.00000 0.00000 
FGRIL011 GRIL0P7      1 0        0.00000 0.00000 0.00000 0.00000 
FGRILL11 GRILLP7      1 0        0.00000 0.00000 0.00000 0.00000 
FGRIM521 GRIM5P6 1.1- 0 0        79.5588 71.6540 -1.2078 0.00000 0.00000 -2.2500 
FGRISO21 GRISOP6 1-2  0 0        10.7496 -0.0135 0.00000 0.00000 
FGROSN11 GROSNP7 1    0 0        0.00000 0.00000 0.00000 0.00000 
FGROSN12 GROSNP7 2    0 0        0.00000 0.00000 0.00000 0.00000 
FGROSN21 GROSNP6 1    0 0        0.00000 0.00000 0.00000 0.00000 
FGROSN22 GROSNP6 2    0 0        0.00000 0.00000 0.00000 0.00000 
FGUARB21 GUARBP6 1.2- 0 0        20.0843 5.30952 0.00000 0.00000 
FGUARB22 GUARBP6      0 0        0.00000 0.00000 0.00000 0.00000 
FGUARB23 GUARBP6 2.2- 0 0        20.1537 5.32230 0.00000 0.00000 
FGUEBW21 GUEBWP6 1    0 0        27.0781 2.10243 0.00000 0.00000 
FGUER821 GUER8P6 1    0 0        0.00000 0.00000 0.00000 0.00000 
FGUERS21 GUERSP6 1-1. 0 0        187.845 47.7877 0.00000 0.00000 
FGUESD21 GUESDP6 1    0 0        0.00000 0.00000 0.00000 0.00000 
FGUEUG21 GUEUGP6 1-2  0 0        43.4216 -2.9865 0.00000 0.00000 
...